version 2
4
2
.dc V1 0 5 100m{return}.kicad adjustpaths{return}.save all{return}.probe alli
2
1
V(/PI)
 
1
V(/Supply)
 
2
.dc V1 0 5 100m{return}.kicad adjustpaths{return}.save all{return}.probe alli
2
1
V(/PI)
 
1
V(/Supply)
 
2
.dc V1 0 5 100m{return}.kicad adjustpaths{return}.save all{return}.probe alli
2
1
V(/PI)
 
1
V(/Supply)
 
2
.dc V1 0 5 100m{return}.kicad adjustpaths{return}.save all{return}.probe alli
2
1
V(/PI)
 
1
V(/Supply)
 
