version 2
1
2
.dc V1 0 5 100m V2 5 0 100m{return}.kicad adjustpaths{return}.save all{return}.probe alli
0
